Circuit: * C:\Users\Bogdan\OneDrive\Desktop\DEEA-tema\DEEA-tema.asc

Direct Newton iteration for .op point succeeded.

Date: Thu Jan 18 18:23:32 2024
Total elapsed time: 0.102 seconds.

tnom = 27
temp = 27
method = modified trap
totiter = 3055
traniter = 3052
tranpoints = 1527
accept = 1459
rejected = 68
matrix size = 22
fillins = 24
solver = Normal
Avg thread counts: 1.9/2.8/2.8/1.9
Matrix Compiler1: 2.19 KB object code size  1.3/0.5/[0.3]
Matrix Compiler2: 2.95 KB object code size  0.5/0.5/[0.3]

