Circuit: * C:\Users\Bogdan\OneDrive\Desktop\DEEA-tema\DEEA-5.asc

Number of points per decade reduced from 10000 to 8790.
Direct Newton iteration for .op point succeeded.

Date: Thu Jan 18 21:00:00 2024
Total elapsed time: 1.123 seconds.

tnom = 27
temp = 27
method = trap
totiter = 3
traniter = 0
tranpoints = 0
accept = 0
rejected = 0
matrix size = 23
fillins = 27
solver = Normal
Avg thread counts: 8.0/0.0/8.0/1.0
Matrix Compiler1:     136 opcodes
Matrix Compiler2: 3.06 KB object code size
