Circuit: * C:\Users\Bogdan\OneDrive\Desktop\DEEA-tema\DEEA-6.asc

Direct Newton iteration failed to find .op point.  (Use ".option noopiter" to skip.)
Starting Gmin stepping
Gmin = 10
Gmin = 1.07374
Gmin = 0.115292
Gmin = 0.0123794
Gmin = 0.00132923
Gmin = 0.000142725
Gmin = 1.5325e-05
Gmin = 1.6455e-06
Gmin = 1.76685e-07
Gmin = 1.89714e-08
Gmin = 2.03704e-09
Gmin = 2.18725e-10
Gmin = 2.34854e-11
Gmin = 2.52173e-12
Gmin = 2.70769e-13
Gmin = 0
Gmin stepping succeeded in finding the operating point.


Date: Thu Jan 18 21:01:34 2024
Total elapsed time: 0.204 seconds.

tnom = 27
temp = 27
method = modified trap
totiter = 7047
traniter = 6636
tranpoints = 2386
accept = 2013
rejected = 373
matrix size = 29
fillins = 37
solver = Normal
Avg thread counts: 1.4/2.2/2.2/1.4
Matrix Compiler1: 2.98 KB object code size  1.3/1.1/[0.6]
Matrix Compiler2: off  [0.6]/0.7/1.5

